Version 4
SHEET 1 880 680
WIRE -176 160 -192 160
WIRE 0 160 -176 160
WIRE 336 176 240 176
WIRE 448 176 336 176
WIRE 0 192 -80 192
WIRE -80 272 -80 192
WIRE 352 272 -80 272
WIRE 336 368 336 176
WIRE 336 368 -80 368
WIRE -80 448 -80 368
WIRE 0 448 -80 448
WIRE 352 464 352 272
WIRE 352 464 240 464
WIRE 448 464 352 464
WIRE -176 480 -192 480
WIRE 0 480 -176 480
FLAG 448 176 Qa
IOPIN 448 176 Out
FLAG 448 464 Qa_bar
IOPIN 448 464 Out
FLAG -192 160 Set
IOPIN -192 160 In
FLAG -192 480 Reset
IOPIN -192 480 In
FLAG -176 240 0
FLAG -176 560 0
SYMBOL Nor_gate 112 176 R0
SYMATTR InstName X1
SYMBOL Nor_gate 112 464 R0
SYMATTR InstName X2
SYMBOL voltage -176 144 R0
WINDOW 3 26 92 Left 2
SYMATTR InstName V1
SYMATTR Value PULSE(0 5 0 5n 5n 20m 40m)
SYMBOL voltage -176 464 R0
SYMATTR InstName V2
SYMATTR Value PULSE(0 5 0 5n 5n 40m 80m)
TEXT 608 544 Left 2 !.tran 160m
